/*--------------------------------*- C++ -*----------------------------------*\
  =========                 |
  \\      /  F ield         | OpenFOAM: The Open Source CFD Toolbox
   \\    /   O peration     | Website:  https://openfoam.org
    \\  /    A nd           | Version:  6
     \\/     M anipulation  |
\*---------------------------------------------------------------------------*/
FoamFile
{
    version         2.0;
    format          ascii;
    class           dictionary;
    object          blockMeshDict;
}
// * * * * * * * * * * * * * * * * * * * * * * * * * * * * * * * * * * * * * //

convertToMeters 1000;

vertices
(
    ( -5 -5 -7 )
    (  5 -5 -7 )
    (  5  5 -7 )
    ( -5  5 -7 )
    ( -5 -5  3 )
    (  5 -5  3 )
    (  5  5  3 )
    ( -5  5  3 )

);

blocks
(
    hex (0 1 2 3 4 5 6 7) (100 100 100) simpleGrading (1 1 1)
);

edges
(
);

boundary
(
    inlet
    {
        type patch;
        faces
        (
            (4 5 6 7)
        );
    }
    outlet
    {
        type patch;
        faces
        (
            (0 3 2 1)
        );
    }
    walls
    {
        type wall;
        faces
        (
            (0 1 5 4)
            (0 4 7 3)
            //(0 3 2 1)
            (1 2 6 5)
            (3 7 6 2)
            //(4 5 6 7)
        );
    }
);

mergePatchPairs
(
);


// ************************************************************************* //
